#    Name:    1t48_ligand
#    Version:    PDBbind v2024

@<TRIPOS>MOLECULE
1t48_ligand
   45    47     1     0     0
SMALL
USER_CHARGES

@<TRIPOS>ATOM
      1 BR22       48.6060   31.1550   25.9510 Br        1 BB3         0.0000
      2 C13        50.4400   30.9340   25.6340 C.ar      1 BB3         0.0000
      3 C14        51.2350   30.4560   26.7650 C.ar      1 BB3         0.0000
      4 O20        50.7290   30.2220   27.8890 O.3       1 BB3         0.0000
      5 C15        52.6640   30.2570   26.5230 C.ar      1 BB3         0.0000
      6 BR21       53.6820   29.6420   27.9680 Br        1 BB3         0.0000
      7 C16        53.2220   30.5310   25.2820 C.ar      1 BB3         0.0000
      8 C12        51.0450   31.1900   24.4020 C.ar      1 BB3         0.0000
      9 C11        52.4220   30.9820   24.2320 C.ar      1 BB3         0.0000
     10 C03        53.0650   31.2630   22.9060 C.2       1 BB3         0.0000
     11 O19        52.5540   32.0930   22.1590 O.2       1 BB3         0.0000
     12 C9         54.1870   30.6490   22.5100 C.2       1 BB3         0.0000
     13 C8         54.6610   29.4340   22.8460 C.2       1 BB3         0.0000
     14 C17        54.0160   28.4220   23.7550 C.3       1 BB3         0.0000
     15 C18        55.1230   27.8280   24.6190 C.3       1 BB3         0.0000
     16 C5         55.1950   31.2310   21.5740 C.ar      1 BB3         0.0000
     17 C6         55.2470   32.4340   20.8940 C.ar      1 BB3         0.0000
     18 C4         56.2690   30.2560   21.4750 C.ar      1 BB3         0.0000
     19 O7         55.9600   29.1660   22.2390 O.3       1 BB3         0.0000
     20 C3         57.3860   30.4870   20.7030 C.ar      1 BB3         0.0000
     21 C2         57.4290   31.7010   20.0190 C.ar      1 BB3         0.0000
     22 C1         56.3890   32.6430   20.1230 C.ar      1 BB3         0.0000
     23 S01        58.8020   32.0390   19.0210 S.o2      1 BB3         0.0000
     24 O01        59.1930   30.8750   18.2780 O.2       1 BB3         0.0000
     25 O02        58.4490   33.1340   18.0870 O.2       1 BB3         0.0000
     26 N01        60.1210   32.5230   20.0110 N.am      1 BB3         0.0000
     27 C01        59.8570   33.2870   21.2170 C.3       1 BB3         0.0000
     28 C02        61.4860   32.1720   19.6500 C.3       1 BB3         0.0000
     29 H          54.2862   30.3937   25.1278 H         1 BB3         0.0000
     30 H          50.4478   31.5513   23.5726 H         1 BB3         0.0000
     31 H          53.2602   28.9199   24.3802 H         1 BB3         0.0000
     32 H          53.5339   27.6402   23.1498 H         1 BB3         0.0000
     33 H          54.6938   27.0798   25.3016 H         1 BB3         0.0000
     34 H          55.6001   28.6277   25.2046 H         1 BB3         0.0000
     35 H          55.8738   27.3480   23.9741 H         1 BB3         0.0000
     36 H          54.4509   33.1671   20.9566 H         1 BB3         0.0000
     37 H          58.1895   29.7629   20.6310 H         1 BB3         0.0000
     38 H          56.4804   33.5754   19.5776 H         1 BB3         0.0000
     39 H          58.7740   33.4514   21.3172 H         1 BB3         0.0000
     40 H          60.3711   34.2576   21.1561 H         1 BB3         0.0000
     41 H          60.2259   32.7309   22.0914 H         1 BB3         0.0000
     42 H          61.4810   31.5977   18.7118 H         1 BB3         0.0000
     43 H          61.9319   31.5631   20.4503 H         1 BB3         0.0000
     44 H          62.0771   33.0898   19.5149 H         1 BB3         0.0000
     45 H          50.0630   29.5502   27.8016 H         1 BB3         0.0000
@<TRIPOS>BOND
     1    1    2 1
     2    2    3 ar
     3    2    8 ar
     4    3    4 1
     5    3    5 ar
     6    5    6 1
     7    5    7 ar
     8    7    9 ar
     9    7   29 1
    10    8    9 ar
    11    8   30 1
    12    9   10 1
    13   10   11 2
    14   10   12 1
    15   12   13 2
    16   12   16 1
    17   13   14 1
    18   13   19 1
    19   14   15 1
    20   14   31 1
    21   14   32 1
    22   15   33 1
    23   15   34 1
    24   15   35 1
    25   16   17 ar
    26   16   18 ar
    27   17   22 ar
    28   17   36 1
    29   18   19 1
    30   18   20 ar
    31   20   21 ar
    32   20   37 1
    33   21   22 ar
    34   21   23 1
    35   22   38 1
    36   23   24 2
    37   23   25 2
    38   23   26 am
    39   26   27 1
    40   26   28 1
    41   27   39 1
    42   27   40 1
    43   27   41 1
    44   28   42 1
    45   28   43 1
    46   28   44 1
    47    4   45 1

