#    Name:    1oxg_ligand
#    Version:    PDBbind v2024

@<TRIPOS>MOLECULE
1oxg_ligand
  165   170     1     0     0
SMALL
USER_CHARGES

@<TRIPOS>ATOM
      1 O          41.4060    1.8640   53.7740 O.2       1 ILE         0.0000
      2 N          38.8620    2.0280   54.7500 N.4       1 ILE         1.0000
      3 C          40.6090    2.5400   53.1190 C.2       1 ILE         0.0000
      4 CA         39.1020    2.4720   53.3900 C.3       1 ILE         0.0000
      5 O          42.9180    3.2100   49.4400 O.2       1 VAL         0.0000
      6 N          40.9690    3.3380   52.0960 N.am      1 VAL         0.0000
      7 C          42.7940    4.0160   50.3640 C.2       1 VAL         0.0000
      8 CA         42.4110    3.5130   51.7960 C.3       1 VAL         0.0000
      9 O          42.1800    7.8360   49.9270 O.2       1 ASN         0.0000
     10 N          42.9680    5.3320   50.2330 N.am      1 ASN         0.0000
     11 C          42.3870    7.1720   48.9250 C.2       1 ASN         0.0000
     12 CA         43.3160    5.9720   48.9820 C.3       1 ASN         0.0000
     13 O          38.5990    8.7050   47.0130 O.2       1 GLY         0.0000
     14 N          41.8030    7.4400   47.7680 N.am      1 GLY         0.0000
     15 C          39.4540    8.0700   47.6120 C.2       1 GLY         0.0000
     16 CA         40.8860    8.5760   47.6750 C.3       1 GLY         0.0000
     17 O          35.9230    6.3510   49.5490 O.2       1 GLU         0.0000
     18 N          39.1870    6.8900   48.2160 N.am      1 GLU         0.0000
     19 C          37.0540    6.8000   49.3040 C.2       1 GLU         0.0000
     20 CA         37.8760    6.2690   48.1800 C.3       1 GLU         0.0000
     21 O          36.9240   10.6170   51.6670 O.2       1 GLU         0.0000
     22 N          37.6110    7.7710   49.9860 N.am      1 GLU         0.0000
     23 C          36.4640    9.7440   50.9380 C.2       1 GLU         0.0000
     24 CA         36.9180    8.3280   51.1210 C.3       1 GLU         0.0000
     25 O          33.3880   11.0710   51.4720 O.2       1 ALA         0.0000
     26 N          35.5980    9.9990   49.9990 N.am      1 ALA         0.0000
     27 CB         34.3550   11.5780   48.6150 C.3       1 ALA         0.0000
     28 C          34.3320   11.7820   51.1230 C.2       1 ALA         0.0000
     29 CA         35.1780   11.3800   49.8810 C.3       1 ALA         0.0000
     30 O          34.2860   15.9390   52.5000 O.2       1 VAL         0.0000
     31 N          34.6430   12.9140   51.7720 N.am      1 VAL         0.0000
     32 CG1        33.9230   14.0460   55.3130 C.3       1 VAL         0.0000
     33 CG2        34.9930   11.9630   54.5810 C.3       1 VAL         0.0000
     34 C          33.4940   14.9610   52.4920 C.2       1 VAL         0.0000
     35 CA         33.8800   13.4710   52.8320 C.3       1 VAL         0.0000
     36 CB         34.7000   13.3320   54.1940 C.3       1 VAL         0.0000
     37 O          31.5510   13.9440   49.3310 O.2       1 PRO         0.0000
     38 N          32.2840   14.7930   52.0230 N.am      1 PRO         0.0000
     39 C          31.0110   13.7080   50.4110 C.2       1 PRO         0.0000
     40 CD         31.9810   16.1420   52.5830 C.3       1 PRO         0.0000
     41 CG         30.5780   16.6070   52.5360 C.3       1 PRO         0.0000
     42 CB         30.1490   15.9720   51.3350 C.3       1 PRO         0.0000
     43 CA         30.9570   14.7080   51.4960 C.3       1 PRO         0.0000
     44 O          29.2440   11.6700   47.5400 O.2       1 GLY         0.0000
     45 N          30.4630   12.5960   50.6880 N.am      1 GLY         0.0000
     46 C          29.2420   11.9610   48.7360 C.2       1 GLY         0.0000
     47 CA         30.4750   11.6690   49.5860 C.3       1 GLY         0.0000
     48 O          27.0740   14.8450   49.8530 O.2       1 SER         0.0000
     49 OG         25.4770   12.2300   50.4460 O.3       1 SER         0.0000
     50 N          28.2120   12.5020   49.3370 N.am      1 SER         0.0000
     51 C          26.6150   14.2510   48.8710 C.2       1 SER         0.0000
     52 CB         25.8270   11.9460   49.1160 C.3       1 SER         0.0000
     53 CA         26.9770   12.8110   48.6260 C.3       1 SER         0.0000
     54 O          24.0550   15.8700   46.1180 O.2       1 TRP         0.0000
     55 N          25.8040   14.8370   47.9650 N.am      1 TRP         0.0000
     56 NE1        26.0530   20.6490   47.6010 N.pl3     1 TRP         0.0000
     57 C          24.2150   16.4750   47.1680 C.2       1 TRP         0.0000
     58 CH2        27.2830   20.8510   51.0420 C.ar      1 TRP         0.0000
     59 CZ3        27.4780   19.4660   51.1940 C.ar      1 TRP         0.0000
     60 CD1        25.9670   19.4380   46.9730 C.2       1 TRP         0.0000
     61 CZ2        26.8010   21.3610   49.8790 C.ar      1 TRP         0.0000
     62 CE3        27.1980   18.5930   50.2050 C.ar      1 TRP         0.0000
     63 CB         26.4910   17.0770   47.5410 C.3       1 TRP         0.0000
     64 CA         25.3700   16.1770   48.0750 C.3       1 TRP         0.0000
     65 CE2        26.5380   20.4500   48.8580 C.ar      1 TRP         0.0000
     66 CG         26.3820   18.4550   47.8070 C.2       1 TRP         0.0000
     67 CD2        26.7450   19.0670   49.0060 C.ar      1 TRP         0.0000
     68 O          23.7620   19.1570   45.6490 O.2       1 PRO         0.0000
     69 N          23.3390   17.3460   47.6050 N.am      1 PRO         0.0000
     70 C          22.7530   18.4770   45.5930 C.2       1 PRO         0.0000
     71 CD         23.0770   17.5020   49.0390 C.3       1 PRO         0.0000
     72 CG         21.7640   18.1800   49.0500 C.3       1 PRO         0.0000
     73 CB         21.5810   18.8490   47.7420 C.3       1 PRO         0.0000
     74 CA         22.2340   17.8520   46.8090 C.3       1 PRO         0.0000
     75 O          22.2150   20.7180   41.9560 O.co2     1 TRP        -0.5000
     76 OXT        20.9090   20.4580   43.4870 O.co2     1 TRP        -0.5000
     77 N          22.0840   18.2240   44.4830 N.am      1 TRP         0.0000
     78 NE1        25.7560   15.7280   42.7550 N.pl3     1 TRP         0.0000
     79 CH2        24.5610   13.1460   40.4650 C.ar      1 TRP         0.0000
     80 CZ3        23.3210   13.7140   40.1760 C.ar      1 TRP         0.0000
     81 CD1        24.9500   16.8180   43.0450 C.2       1 TRP         0.0000
     82 CZ2        25.4550   13.7240   41.2830 C.ar      1 TRP         0.0000
     83 CE3        22.9580   14.8910   40.7270 C.ar      1 TRP         0.0000
     84 CB         22.6410   17.7480   42.1930 C.3       1 TRP         0.0000
     85 C          21.8720   20.0350   42.8920 C.2       1 TRP         0.0000
     86 CA         22.5670   18.7950   43.2740 C.3       1 TRP         0.0000
     87 CE2        25.0940   14.9170   41.8700 C.ar      1 TRP         0.0000
     88 CG         23.7900   16.7320   42.3420 C.2       1 TRP         0.0000
     89 CD2        23.8510   15.5250   41.6020 C.ar      1 TRP         0.0000
     90 H          37.7786    1.9823   54.9350 H         1 ILE         0.0000
     91 H          39.3247    2.7356   55.4537 H         1 ILE         0.0000
     92 H          39.3007    1.0294   54.8925 H         1 ILE         0.0000
     93 H          38.6393    1.7644   52.6863 H         1 ILE         0.0000
     94 H          38.6633    3.4706   53.2475 H         1 ILE         0.0000
     95 H          40.2137    3.8560   51.4868 H         1 VAL         0.0000
     96 H          42.8428    4.2503   52.4888 H         1 VAL         0.0000
     97 H          42.9298    2.5503   51.9150 H         1 VAL         0.0000
     98 H          42.8331    5.9372   51.1416 H         1 ASN         0.0000
     99 H          44.3761    6.2647   49.0024 H         1 ASN         0.0000
    100 H          43.1450    5.2712   48.1516 H         1 ASN         0.0000
    101 H          42.0009    6.8189   46.8819 H         1 GLY         0.0000
    102 H          41.0083    9.2192   48.5589 H         1 GLY         0.0000
    103 H          41.1100    9.1546   46.7667 H         1 GLY         0.0000
    104 H          40.0136    6.3992   48.7507 H         1 GLU         0.0000
    105 H          37.3869    6.5004   47.2223 H         1 GLU         0.0000
    106 H          37.9836    5.1791   48.2829 H         1 GLU         0.0000
    107 H          38.5986    8.1611   49.6989 H         1 GLU         0.0000
    108 H          36.0200    7.7290   51.3324 H         1 GLU         0.0000
    109 H          37.5818    8.3157   51.9981 H         1 GLU         0.0000
    110 H          35.1876    9.2392   49.3177 H         1 ALA         0.0000
    111 H          34.9558   11.2930   47.7388 H         1 ALA         0.0000
    112 H          34.0612   12.6347   48.5302 H         1 ALA         0.0000
    113 H          33.4535   10.9494   48.6617 H         1 ALA         0.0000
    114 H          36.1088   11.9620   49.8109 H         1 ALA         0.0000
    115 H          35.5598   13.4171   51.4309 H         1 VAL         0.0000
    116 H          34.4779   13.9577   56.2586 H         1 VAL         0.0000
    117 H          32.9319   13.5821   55.4248 H         1 VAL         0.0000
    118 H          33.8035   15.1088   55.0558 H         1 VAL         0.0000
    119 H          35.5572   11.9617   55.5253 H         1 VAL         0.0000
    120 H          35.5923   11.4801   53.7951 H         1 VAL         0.0000
    121 H          34.0514   11.4105   54.7157 H         1 VAL         0.0000
    122 H          32.9637   12.8632   52.8611 H         1 VAL         0.0000
    123 H          35.7175   13.7346   54.0816 H         1 VAL         0.0000
    124 H          32.2580   16.1679   53.6472 H         1 PRO         0.0000
    125 H          32.5559   16.9037   52.0359 H         1 PRO         0.0000
    126 H          30.0480   16.2649   53.4372 H         1 PRO         0.0000
    127 H          30.5572   17.7060   52.4934 H         1 PRO         0.0000
    128 H          29.0574   15.8384   51.3606 H         1 PRO         0.0000
    129 H          30.4217   16.5973   50.4720 H         1 PRO         0.0000
    130 H          30.3161   14.3176   52.3002 H         1 PRO         0.0000
    131 H          30.0081   12.3052   51.6464 H         1 GLY         0.0000
    132 H          31.3931   11.8114   48.9971 H         1 GLY         0.0000
    133 H          30.4432   10.6396   49.9724 H         1 GLY         0.0000
    134 H          24.6584   11.6767   50.9295 H         1 SER         0.0000
    135 H          28.2985   12.7234   50.4110 H         1 SER         0.0000
    136 H          26.1337   10.8928   49.0345 H         1 SER         0.0000
    137 H          24.9612   12.1274   48.4622 H         1 SER         0.0000
    138 H          27.1807   12.6154   47.5629 H         1 SER         0.0000
    139 H          25.4805   14.2224   47.1120 H         1 TRP         0.0000
    140 H          25.7499   21.5651   47.0729 H         1 TRP         0.0000
    141 H          27.5214   21.5224   51.8669 H         1 TRP         0.0000
    142 H          27.8669   19.0873   52.1392 H         1 TRP         0.0000
    143 H          25.6164   19.2860   45.9522 H         1 TRP         0.0000
    144 H          26.6285   22.4296   49.7508 H         1 TRP         0.0000
    145 H          27.3314   17.5224   50.3601 H         1 TRP         0.0000
    146 H          27.4511   16.7654   47.9783 H         1 TRP         0.0000
    147 H          26.5413   16.9893   46.4457 H         1 TRP         0.0000
    148 H          25.0964   16.2741   49.1360 H         1 TRP         0.0000
    149 H          23.0509   16.5115   49.5168 H         1 PRO         0.0000
    150 H          23.8748   18.1075   49.4938 H         1 PRO         0.0000
    151 H          20.9690   17.4369   49.2102 H         1 PRO         0.0000
    152 H          21.7413   18.9220   49.8617 H         1 PRO         0.0000
    153 H          20.5072   18.9904   47.5495 H         1 PRO         0.0000
    154 H          22.0827   19.8278   47.7574 H         1 PRO         0.0000
    155 H          21.5518   17.0679   46.4486 H         1 PRO         0.0000
    156 H          21.1814   17.5954   44.4722 H         1 TRP         0.0000
    157 H          26.7480   15.6378   43.2218 H         1 TRP         0.0000
    158 H          24.8159   12.1905   40.0066 H         1 TRP         0.0000
    159 H          22.6379   13.2021   39.4981 H         1 TRP         0.0000
    160 H          25.2078   17.6229   43.7333 H         1 TRP         0.0000
    161 H          26.4264   13.2682   41.4748 H         1 TRP         0.0000
    162 H          21.9914   15.3391   40.4967 H         1 TRP         0.0000
    163 H          21.7076   17.1660   42.1817 H         1 TRP         0.0000
    164 H          22.7798   18.2372   41.2176 H         1 TRP         0.0000
    165 H          23.5839   19.1432   43.5080 H         1 TRP         0.0000
@<TRIPOS>BOND
     1    1    3 2
     2    2    4 1
     3    2   90 1
     4    2   91 1
     5    2   92 1
     6    3    4 1
     7    3    6 am
     8    4   93 1
     9    4   94 1
    10    5    7 2
    11    6    8 1
    12    6   95 1
    13    7    8 1
    14    7   10 am
    15    8   96 1
    16    8   97 1
    17    9   11 2
    18   10   12 1
    19   10   98 1
    20   11   12 1
    21   11   14 am
    22   12   99 1
    23   12  100 1
    24   13   15 2
    25   14   16 1
    26   14  101 1
    27   15   16 1
    28   15   18 am
    29   16  102 1
    30   16  103 1
    31   17   19 2
    32   18   20 1
    33   18  104 1
    34   19   20 1
    35   19   22 am
    36   20  105 1
    37   20  106 1
    38   21   23 2
    39   22   24 1
    40   22  107 1
    41   23   24 1
    42   23   26 am
    43   24  108 1
    44   24  109 1
    45   25   28 2
    46   26   29 1
    47   26  110 1
    48   27   29 1
    49   27  111 1
    50   27  112 1
    51   27  113 1
    52   28   29 1
    53   28   31 am
    54   29  114 1
    55   30   34 2
    56   31   35 1
    57   31  115 1
    58   32   36 1
    59   32  116 1
    60   32  117 1
    61   32  118 1
    62   33   36 1
    63   33  119 1
    64   33  120 1
    65   33  121 1
    66   34   35 1
    67   34   38 am
    68   35   36 1
    69   35  122 1
    70   36  123 1
    71   37   39 2
    72   38   40 1
    73   38   43 1
    74   39   43 1
    75   39   45 am
    76   40   41 1
    77   40  124 1
    78   40  125 1
    79   41   42 1
    80   41  126 1
    81   41  127 1
    82   42   43 1
    83   42  128 1
    84   42  129 1
    85   43  130 1
    86   44   46 2
    87   45   47 1
    88   45  131 1
    89   46   47 1
    90   46   50 am
    91   47  132 1
    92   47  133 1
    93   48   51 2
    94   49   52 1
    95   49  134 1
    96   50   53 1
    97   50  135 1
    98   51   53 1
    99   51   55 am
   100   52   53 1
   101   52  136 1
   102   52  137 1
   103   53  138 1
   104   54   57 2
   105   55   64 1
   106   55  139 1
   107   56   60 1
   108   56   65 1
   109   56  140 1
   110   57   64 1
   111   57   69 am
   112   58   59 ar
   113   58   61 ar
   114   58  141 1
   115   59   62 ar
   116   59  142 1
   117   60   66 2
   118   60  143 1
   119   61   65 ar
   120   61  144 1
   121   62   67 ar
   122   62  145 1
   123   63   64 1
   124   63   66 1
   125   63  146 1
   126   63  147 1
   127   64  148 1
   128   65   67 ar
   129   66   67 1
   130   68   70 2
   131   69   71 1
   132   69   74 1
   133   70   74 1
   134   70   77 am
   135   71   72 1
   136   71  149 1
   137   71  150 1
   138   72   73 1
   139   72  151 1
   140   72  152 1
   141   73   74 1
   142   73  153 1
   143   73  154 1
   144   74  155 1
   145   75   85 ar
   146   76   85 ar
   147   77   86 1
   148   77  156 1
   149   78   81 1
   150   78   87 1
   151   78  157 1
   152   79   80 ar
   153   79   82 ar
   154   79  158 1
   155   80   83 ar
   156   80  159 1
   157   81   88 2
   158   81  160 1
   159   82   87 ar
   160   82  161 1
   161   83   89 ar
   162   83  162 1
   163   84   86 1
   164   84   88 1
   165   84  163 1
   166   84  164 1
   167   85   86 1
   168   86  165 1
   169   87   89 ar
   170   88   89 1

