1oxg_ligand
Version: PDBbind v2024

165170  0  0  1  0            999 V2000
   41.4060    1.8640   53.7740 O   0  0  0  0  0  0
   38.8620    2.0280   54.7500 N   0  3  0  0  0  0
   40.6090    2.5400   53.1190 C   0  0  0  0  0  0
   39.1020    2.4720   53.3900 C   0  0  0  0  0  0
   37.7786    1.9823   54.9350 H   0  0  0  0  0  0
   39.3247    2.7356   55.4537 H   0  0  0  0  0  0
   38.6393    1.7644   52.6863 H   0  0  0  0  0  0
   38.6633    3.4706   53.2475 H   0  0  0  0  0  0
   42.9180    3.2100   49.4400 O   0  0  0  0  0  0
   40.9690    3.3380   52.0960 N   0  0  0  0  0  0
   42.7940    4.0160   50.3640 C   0  0  0  0  0  0
   42.4110    3.5130   51.7960 C   0  0  0  0  0  0
   42.8428    4.2503   52.4888 H   0  0  0  0  0  0
   42.9298    2.5503   51.9150 H   0  0  0  0  0  0
   40.2137    3.8560   51.4868 H   0  0  0  0  0  0
   42.1800    7.8360   49.9270 O   0  0  0  0  0  0
   42.9680    5.3320   50.2330 N   0  0  0  0  0  0
   42.3870    7.1720   48.9250 C   0  0  0  0  0  0
   43.3160    5.9720   48.9820 C   0  0  0  0  0  0
   44.3761    6.2647   49.0024 H   0  0  0  0  0  0
   43.1450    5.2712   48.1516 H   0  0  0  0  0  0
   42.8331    5.9372   51.1416 H   0  0  0  0  0  0
   38.5990    8.7050   47.0130 O   0  0  0  0  0  0
   41.8030    7.4400   47.7680 N   0  0  0  0  0  0
   39.4540    8.0700   47.6120 C   0  0  0  0  0  0
   40.8860    8.5760   47.6750 C   0  0  0  0  0  0
   41.0083    9.2192   48.5589 H   0  0  0  0  0  0
   41.1100    9.1546   46.7667 H   0  0  0  0  0  0
   42.0009    6.8189   46.8819 H   0  0  0  0  0  0
   35.9230    6.3510   49.5490 O   0  0  0  0  0  0
   39.1870    6.8900   48.2160 N   0  0  0  0  0  0
   37.0540    6.8000   49.3040 C   0  0  0  0  0  0
   37.8760    6.2690   48.1800 C   0  0  0  0  0  0
   37.3869    6.5004   47.2223 H   0  0  0  0  0  0
   37.9836    5.1791   48.2829 H   0  0  0  0  0  0
   40.0136    6.3992   48.7507 H   0  0  0  0  0  0
   36.9240   10.6170   51.6670 O   0  0  0  0  0  0
   37.6110    7.7710   49.9860 N   0  0  0  0  0  0
   36.4640    9.7440   50.9380 C   0  0  0  0  0  0
   36.9180    8.3280   51.1210 C   0  0  0  0  0  0
   36.0200    7.7290   51.3324 H   0  0  0  0  0  0
   37.5818    8.3157   51.9981 H   0  0  0  0  0  0
   38.5986    8.1611   49.6989 H   0  0  0  0  0  0
   33.3880   11.0710   51.4720 O   0  0  0  0  0  0
   35.5980    9.9990   49.9990 N   0  0  0  0  0  0
   34.3550   11.5780   48.6150 C   0  0  0  0  0  0
   34.3320   11.7820   51.1230 C   0  0  0  0  0  0
   35.1780   11.3800   49.8810 C   0  0  1  0  0  0
   34.9558   11.2930   47.7388 H   0  0  0  0  0  0
   33.4535   10.9494   48.6617 H   0  0  0  0  0  0
   34.0612   12.6347   48.5302 H   0  0  0  0  0  0
   36.1088   11.9620   49.8109 H   0  0  0  0  0  0
   35.1876    9.2392   49.3177 H   0  0  0  0  0  0
   34.2860   15.9390   52.5000 O   0  0  0  0  0  0
   34.6430   12.9140   51.7720 N   0  0  0  0  0  0
   33.9230   14.0460   55.3130 C   0  0  0  0  0  0
   34.9930   11.9630   54.5810 C   0  0  0  0  0  0
   33.4940   14.9610   52.4920 C   0  0  0  0  0  0
   33.8800   13.4710   52.8320 C   0  0  2  0  0  0
   34.7000   13.3320   54.1940 C   0  0  0  0  0  0
   34.4779   13.9577   56.2586 H   0  0  0  0  0  0
   32.9319   13.5821   55.4248 H   0  0  0  0  0  0
   33.8035   15.1088   55.0558 H   0  0  0  0  0  0
   35.5572   11.9617   55.5253 H   0  0  0  0  0  0
   35.5923   11.4801   53.7951 H   0  0  0  0  0  0
   34.0514   11.4105   54.7157 H   0  0  0  0  0  0
   32.9637   12.8632   52.8611 H   0  0  0  0  0  0
   35.7175   13.7346   54.0816 H   0  0  0  0  0  0
   35.5598   13.4171   51.4309 H   0  0  0  0  0  0
   31.5510   13.9440   49.3310 O   0  0  0  0  0  0
   32.2840   14.7930   52.0230 N   0  0  0  0  0  0
   31.0110   13.7080   50.4110 C   0  0  0  0  0  0
   31.9810   16.1420   52.5830 C   0  0  0  0  0  0
   30.5780   16.6070   52.5360 C   0  0  0  0  0  0
   30.1490   15.9720   51.3350 C   0  0  0  0  0  0
   30.9570   14.7080   51.4960 C   0  0  2  0  0  0
   32.2580   16.1679   53.6472 H   0  0  0  0  0  0
   32.5559   16.9037   52.0359 H   0  0  0  0  0  0
   30.0480   16.2649   53.4372 H   0  0  0  0  0  0
   30.5572   17.7060   52.4934 H   0  0  0  0  0  0
   29.0574   15.8384   51.3606 H   0  0  0  0  0  0
   30.4217   16.5973   50.4720 H   0  0  0  0  0  0
   30.3161   14.3176   52.3002 H   0  0  0  0  0  0
   29.2440   11.6700   47.5400 O   0  0  0  0  0  0
   30.4630   12.5960   50.6880 N   0  0  0  0  0  0
   29.2420   11.9610   48.7360 C   0  0  0  0  0  0
   30.4750   11.6690   49.5860 C   0  0  0  0  0  0
   31.3931   11.8114   48.9971 H   0  0  0  0  0  0
   30.4432   10.6396   49.9724 H   0  0  0  0  0  0
   30.0081   12.3052   51.6464 H   0  0  0  0  0  0
   27.0740   14.8450   49.8530 O   0  0  0  0  0  0
   25.4770   12.2300   50.4460 O   0  0  0  0  0  0
   28.2120   12.5020   49.3370 N   0  0  0  0  0  0
   26.6150   14.2510   48.8710 C   0  0  0  0  0  0
   25.8270   11.9460   49.1160 C   0  0  0  0  0  0
   26.9770   12.8110   48.6260 C   0  0  2  0  0  0
   24.6584   11.6767   50.9295 H   0  0  0  0  0  0
   26.1337   10.8928   49.0345 H   0  0  0  0  0  0
   24.9612   12.1274   48.4622 H   0  0  0  0  0  0
   27.1807   12.6154   47.5629 H   0  0  0  0  0  0
   28.2985   12.7234   50.4110 H   0  0  0  0  0  0
   24.0550   15.8700   46.1180 O   0  0  0  0  0  0
   25.8040   14.8370   47.9650 N   0  0  0  0  0  0
   26.0530   20.6490   47.6010 N   0  0  0  0  0  0
   24.2150   16.4750   47.1680 C   0  0  0  0  0  0
   27.2830   20.8510   51.0420 C   0  0  0  0  0  0
   27.4780   19.4660   51.1940 C   0  0  0  0  0  0
   25.9670   19.4380   46.9730 C   0  0  0  0  0  0
   26.8010   21.3610   49.8790 C   0  0  0  0  0  0
   27.1980   18.5930   50.2050 C   0  0  0  0  0  0
   26.4910   17.0770   47.5410 C   0  0  0  0  0  0
   25.3700   16.1770   48.0750 C   0  0  2  0  0  0
   26.5380   20.4500   48.8580 C   0  0  0  0  0  0
   26.3820   18.4550   47.8070 C   0  0  0  0  0  0
   26.7450   19.0670   49.0060 C   0  0  0  0  0  0
   25.7499   21.5651   47.0729 H   0  0  0  0  0  0
   27.5017   21.4670   51.7988 H   0  0  0  0  0  0
   27.8348   19.1186   52.0612 H   0  0  0  0  0  0
   25.6453   19.2985   46.0365 H   0  0  0  0  0  0
   26.6428   22.3414   49.7614 H   0  0  0  0  0  0
   27.3204   17.6108   50.3473 H   0  0  0  0  0  0
   27.4511   16.7654   47.9783 H   0  0  0  0  0  0
   26.5413   16.9893   46.4457 H   0  0  0  0  0  0
   25.0964   16.2741   49.1360 H   0  0  0  0  0  0
   25.4805   14.2224   47.1120 H   0  0  0  0  0  0
   23.7620   19.1570   45.6490 O   0  0  0  0  0  0
   23.3390   17.3460   47.6050 N   0  0  0  0  0  0
   22.7530   18.4770   45.5930 C   0  0  0  0  0  0
   23.0770   17.5020   49.0390 C   0  0  0  0  0  0
   21.7640   18.1800   49.0500 C   0  0  0  0  0  0
   21.5810   18.8490   47.7420 C   0  0  0  0  0  0
   22.2340   17.8520   46.8090 C   0  0  2  0  0  0
   23.0509   16.5115   49.5168 H   0  0  0  0  0  0
   23.8748   18.1075   49.4938 H   0  0  0  0  0  0
   20.9690   17.4369   49.2102 H   0  0  0  0  0  0
   21.7413   18.9220   49.8617 H   0  0  0  0  0  0
   20.5072   18.9904   47.5495 H   0  0  0  0  0  0
   22.0827   19.8278   47.7574 H   0  0  0  0  0  0
   21.5518   17.0679   46.4486 H   0  0  0  0  0  0
   22.2150   20.7180   41.9560 O   0  0  0  0  0  0
   20.9090   20.4580   43.4870 O   0  5  0  0  0  0
   22.0840   18.2240   44.4830 N   0  0  0  0  0  0
   25.7560   15.7280   42.7550 N   0  0  0  0  0  0
   24.5610   13.1460   40.4650 C   0  0  0  0  0  0
   23.3210   13.7140   40.1760 C   0  0  0  0  0  0
   24.9500   16.8180   43.0450 C   0  0  0  0  0  0
   25.4550   13.7240   41.2830 C   0  0  0  0  0  0
   22.9580   14.8910   40.7270 C   0  0  0  0  0  0
   22.6410   17.7480   42.1930 C   0  0  0  0  0  0
   21.8720   20.0350   42.8920 C   0  0  0  0  0  0
   22.5670   18.7950   43.2740 C   0  0  1  0  0  0
   25.0940   14.9170   41.8700 C   0  0  0  0  0  0
   23.7900   16.7320   42.3420 C   0  0  0  0  0  0
   23.8510   15.5250   41.6020 C   0  0  0  0  0  0
   26.7480   15.6378   43.2218 H   0  0  0  0  0  0
   24.7948   12.2694   40.0444 H   0  0  0  0  0  0
   22.6943   13.2444   39.5541 H   0  0  0  0  0  0
   25.1865   17.5565   43.6765 H   0  0  0  0  0  0
   26.3462   13.3059   41.4590 H   0  0  0  0  0  0
   22.0712   15.3021   40.5157 H   0  0  0  0  0  0
   21.7076   17.1660   42.1817 H   0  0  0  0  0  0
   22.7798   18.2372   41.2176 H   0  0  0  0  0  0
   23.5839   19.1432   43.5080 H   0  0  0  0  0  0
   21.1814   17.5954   44.4722 H   0  0  0  0  0  0
   39.3007    1.0294   54.8925 H   0  0  0  0  0  0
  1  3  2  0  0  0
  2  4  1  0  0  0
  2  5  1  0  0  0
  2  6  1  0  0  0
  2165  1  0  0  0
  3  4  1  0  0  0
  3 10  1  0  0  0
  4  7  1  0  0  0
  4  8  1  0  0  0
  9 11  2  0  0  0
 10 12  1  0  0  0
 10 15  1  0  0  0
 11 12  1  0  0  0
 11 17  1  0  0  0
 12 14  1  0  0  0
 12 13  1  0  0  0
 16 18  2  0  0  0
 17 19  1  0  0  0
 17 22  1  0  0  0
 18 19  1  0  0  0
 18 24  1  0  0  0
 19 21  1  0  0  0
 19 20  1  0  0  0
 23 25  2  0  0  0
 24 26  1  0  0  0
 24 29  1  0  0  0
 25 26  1  0  0  0
 25 31  1  0  0  0
 26 28  1  0  0  0
 26 27  1  0  0  0
 30 32  2  0  0  0
 31 33  1  0  0  0
 31 36  1  0  0  0
 32 33  1  0  0  0
 32 38  1  0  0  0
 33 35  1  0  0  0
 33 34  1  0  0  0
 37 39  2  0  0  0
 38 40  1  0  0  0
 38 43  1  0  0  0
 39 40  1  0  0  0
 39 45  1  0  0  0
 40 42  1  0  0  0
 40 41  1  0  0  0
 44 47  2  0  0  0
 45 48  1  0  0  0
 45 53  1  0  0  0
 46 48  1  0  0  0
 46 51  1  0  0  0
 46 49  1  0  0  0
 46 50  1  0  0  0
 47 48  1  0  0  0
 47 55  1  0  0  0
 48 52  1  0  0  0
 54 58  2  0  0  0
 55 59  1  0  0  0
 55 69  1  0  0  0
 56 60  1  0  0  0
 56 61  1  0  0  0
 56 62  1  0  0  0
 56 63  1  0  0  0
 57 60  1  0  0  0
 57 64  1  0  0  0
 57 65  1  0  0  0
 57 66  1  0  0  0
 58 59  1  0  0  0
 58 71  1  0  0  0
 59 60  1  0  0  0
 59 67  1  0  0  0
 60 68  1  0  0  0
 70 72  2  0  0  0
 71 73  1  0  0  0
 71 76  1  0  0  0
 72 76  1  0  0  0
 72 85  1  0  0  0
 73 74  1  0  0  0
 73 77  1  0  0  0
 73 78  1  0  0  0
 74 75  1  0  0  0
 74 79  1  0  0  0
 74 80  1  0  0  0
 75 76  1  0  0  0
 75 82  1  0  0  0
 75 81  1  0  0  0
 76 83  1  0  0  0
 84 86  2  0  0  0
 85 87  1  0  0  0
 85 90  1  0  0  0
 86 87  1  0  0  0
 86 93  1  0  0  0
 87 89  1  0  0  0
 87 88  1  0  0  0
 91 94  2  0  0  0
 92 95  1  0  0  0
 92 97  1  0  0  0
 93 96  1  0  0  0
 93101  1  0  0  0
 94 96  1  0  0  0
 94103  1  0  0  0
 95 96  1  0  0  0
 95 99  1  0  0  0
 95 98  1  0  0  0
 96100  1  0  0  0
102105  2  0  0  0
103112  1  0  0  0
103125  1  0  0  0
104108  1  0  0  0
104113  1  0  0  0
104116  1  0  0  0
105112  1  0  0  0
105127  1  0  0  0
106107  2  0  0  0
106109  1  0  0  0
106117  1  0  0  0
107110  1  0  0  0
107118  1  0  0  0
108114  2  0  0  0
108119  1  0  0  0
109113  2  0  0  0
109120  1  0  0  0
110115  2  0  0  0
110121  1  0  0  0
111112  1  0  0  0
111114  1  0  0  0
111123  1  0  0  0
111122  1  0  0  0
112124  1  0  0  0
113115  1  0  0  0
114115  1  0  0  0
126128  2  0  0  0
127129  1  0  0  0
127132  1  0  0  0
128132  1  0  0  0
128142  1  0  0  0
129130  1  0  0  0
129133  1  0  0  0
129134  1  0  0  0
130131  1  0  0  0
130135  1  0  0  0
130136  1  0  0  0
131132  1  0  0  0
131138  1  0  0  0
131137  1  0  0  0
132139  1  0  0  0
140150  2  0  0  0
141150  1  0  0  0
142151  1  0  0  0
142164  1  0  0  0
143146  1  0  0  0
143152  1  0  0  0
143155  1  0  0  0
144145  2  0  0  0
144147  1  0  0  0
144156  1  0  0  0
145148  1  0  0  0
145157  1  0  0  0
146153  2  0  0  0
146158  1  0  0  0
147152  2  0  0  0
147159  1  0  0  0
148154  2  0  0  0
148160  1  0  0  0
149151  1  0  0  0
149153  1  0  0  0
149162  1  0  0  0
149161  1  0  0  0
150151  1  0  0  0
151163  1  0  0  0
152154  1  0  0  0
153154  1  0  0  0
M  END
$$$$