#    Name:    2qk8_ligand
#    Version:    PDBbind v2024

@<TRIPOS>MOLECULE
2qk8_ligand
   53    55     1     0     0
SMALL
USER_CHARGES

@<TRIPOS>ATOM
      1 OE1         4.0660    0.2550   10.3760 O.co2     1 MTX        -0.5000
      2 OE2         3.1430    0.3670   12.3370 O.co2     1 MTX        -0.5000
      3 O1          0.7450   -4.5220   10.0970 O.co2     1 MTX        -0.5000
      4 O2          1.8640   -3.5820    8.4630 O.co2     1 MTX        -0.5000
      5 O           0.2670    0.3340   10.6240 O.2       1 MTX         0.0000
      6 NA2        -3.3580   -8.2450   17.9380 N.pl3     1 MTX         0.0000
      7 NA4        -6.8490   -7.1010   15.1010 N.pl3     1 MTX         0.0000
      8 N8         -3.6560   -3.7940   16.6750 N.ar      1 MTX         0.0000
      9 N3         -5.0490   -7.6650   16.4730 N.ar      1 MTX         0.0000
     10 N1         -3.4950   -6.0660   17.3120 N.ar      1 MTX         0.0000
     11 N           0.4100   -2.0050   11.2380 N.am      1 MTX         0.0000
     12 N5         -5.8280   -4.3980   15.0450 N.ar      1 MTX         0.0000
     13 N10        -5.1340   -0.7800   14.2830 N.pl3     1 MTX         0.0000
     14 CM         -5.7960    0.5140   14.4610 C.3       1 MTX         0.0000
     15 C7         -4.2700   -2.7840   15.9430 C.ar      1 MTX         0.0000
     16 C9         -6.0040   -1.9700   14.3580 C.3       1 MTX         0.0000
     17 CG          3.9900   -1.7870   11.6650 C.3       1 MTX         0.0000
     18 CB          2.6880   -2.6170   11.6120 C.3       1 MTX         0.0000
     19 C13        -3.2910    0.4300   13.1380 C.ar      1 MTX         0.0000
     20 C15        -3.2750   -1.9910   13.1500 C.ar      1 MTX         0.0000
     21 C12        -2.1210    0.4330   12.3890 C.ar      1 MTX         0.0000
     22 C16        -2.1010   -1.9440   12.3790 C.ar      1 MTX         0.0000
     23 CD          3.7200   -0.3130   11.4530 C.2       1 MTX         0.0000
     24 CT          1.4110   -3.5310    9.6540 C.2       1 MTX         0.0000
     25 C2         -3.9620   -7.3240   17.2380 C.ar      1 MTX         0.0000
     26 C          -0.2260   -0.8310   11.2560 C.2       1 MTX         0.0000
     27 C4         -5.6860   -6.7350   15.6940 C.ar      1 MTX         0.0000
     28 C8A        -4.1270   -5.1020   16.5750 C.ar      1 MTX         0.0000
     29 C6         -5.3590   -3.0800   15.1250 C.ar      1 MTX         0.0000
     30 CA          1.6370   -2.3060   10.5340 C.3       1 MTX         0.0000
     31 C14        -3.8980   -0.7880   13.5240 C.ar      1 MTX         0.0000
     32 C4A        -5.2220   -5.4150   15.7580 C.ar      1 MTX         0.0000
     33 C11        -1.5200   -0.7860   12.0370 C.ar      1 MTX         0.0000
     34 H          -3.7135   -9.2853   17.9013 H         1 MTX         0.0000
     35 H          -2.4934   -7.9810   18.5647 H         1 MTX         0.0000
     36 H          -7.1510   -8.1587   15.0885 H         1 MTX         0.0000
     37 H          -7.4906   -6.3403   14.6323 H         1 MTX         0.0000
     38 H          -0.0889   -2.7850   11.8318 H         1 MTX         0.0000
     39 H          -6.7148    0.3778   15.0504 H         1 MTX         0.0000
     40 H          -6.0506    0.9340   13.4768 H         1 MTX         0.0000
     41 H          -5.1199    1.2021   14.9896 H         1 MTX         0.0000
     42 H          -3.8998   -1.7609   16.0088 H         1 MTX         0.0000
     43 H          -6.9460   -1.7044   14.8600 H         1 MTX         0.0000
     44 H          -6.2194   -2.3314   13.3416 H         1 MTX         0.0000
     45 H           4.4665   -1.9148   12.6482 H         1 MTX         0.0000
     46 H           4.6765   -2.1310   10.8774 H         1 MTX         0.0000
     47 H           2.9351   -3.6769   11.4523 H         1 MTX         0.0000
     48 H           2.1438   -2.5064   12.5615 H         1 MTX         0.0000
     49 H          -3.7460    1.3761   13.4313 H         1 MTX         0.0000
     50 H          -3.6972   -2.9487   13.4542 H         1 MTX         0.0000
     51 H          -1.6724    1.3760   12.0765 H         1 MTX         0.0000
     52 H          -1.6487   -2.8791   12.0487 H         1 MTX         0.0000
     53 H           1.9166   -1.4469    9.9065 H         1 MTX         0.0000
@<TRIPOS>BOND
     1    1   23 ar
     2    2   23 ar
     3    3   24 ar
     4    4   24 ar
     5    5   26 2
     6    6   25 1
     7    6   34 1
     8    6   35 1
     9    7   27 1
    10    7   36 1
    11    7   37 1
    12    8   15 ar
    13    8   28 ar
    14    9   25 ar
    15    9   27 ar
    16   10   25 ar
    17   10   28 ar
    18   11   26 am
    19   11   30 1
    20   11   38 1
    21   12   29 ar
    22   12   32 ar
    23   13   14 1
    24   13   16 1
    25   13   31 1
    26   14   39 1
    27   14   40 1
    28   14   41 1
    29   15   29 ar
    30   15   42 1
    31   16   29 1
    32   16   43 1
    33   16   44 1
    34   17   18 1
    35   17   23 1
    36   17   45 1
    37   17   46 1
    38   18   30 1
    39   18   47 1
    40   18   48 1
    41   19   21 ar
    42   19   31 ar
    43   19   49 1
    44   20   22 ar
    45   20   31 ar
    46   20   50 1
    47   21   33 ar
    48   21   51 1
    49   22   33 ar
    50   22   52 1
    51   24   30 1
    52   26   33 1
    53   27   32 ar
    54   28   32 ar
    55   30   53 1

