6g3q_ligand
Version: PDBbind v2024

 37 37  0  0  1  0            999 V2000
   -4.8650    5.8430   13.1070 S   0  0  0  0  0  0
   -0.9670    8.1450   15.0350 S   0  0  0  0  0  0
   -5.6610    0.8430   16.6660 S   0  0  0  0  0  0
   -5.3990    0.8300   18.0800 O   0  0  0  0  0  0
   -6.9720    1.2630   16.2590 O   0  0  0  0  0  0
   -5.2120   -0.5810   16.0540 N   0  0  0  0  0  0
   -2.7620   11.0070   11.9180 N   0  3  0  0  0  0
   -1.8710   12.6270   13.2580 N   0  0  0  0  0  0
   -6.2000    3.3220   15.0040 N   0  0  0  0  0  0
   -4.6220    1.9540   16.0710 N   0  3  0  0  0  0
   -1.6120   10.4390   13.8730 N   0  0  0  0  0  0
   -2.4680    8.4180   12.9520 N   0  0  0  0  0  0
   -4.4030    5.3730   14.7900 C   0  0  0  0  0  0
   -3.2170    6.1270   12.4160 C   0  0  0  0  0  0
   -1.6320    6.7390   14.2940 C   0  0  0  0  0  0
   -3.8940    3.9530   14.8460 C   0  0  0  0  0  0
   -1.7500    9.0910   13.8460 C   0  0  0  0  0  0
   -2.0900   11.3600   12.9920 C   0  0  0  0  0  0
   -4.9430    3.0200   15.3200 C   0  0  0  0  0  0
   -2.3940    7.0660   13.2290 C   0  0  0  0  0  0
   -5.7700   -1.4923   16.3149 H   0  0  0  0  0  0
   -3.1351   11.7757   11.2253 H   0  0  0  0  0  0
   -2.9509    9.9430   11.7124 H   0  0  0  0  0  0
   -2.2398   13.4046   12.5729 H   0  0  0  0  0  0
   -1.3188   12.9109   14.1660 H   0  0  0  0  0  0
   -7.0214    2.6663   15.3285 H   0  0  0  0  0  0
   -3.6093    6.0426   15.1528 H   0  0  0  0  0  0
   -5.2809    5.4550   15.4477 H   0  0  0  0  0  0
   -2.6736    5.1723   12.3595 H   0  0  0  0  0  0
   -3.3112    6.5555   11.4073 H   0  0  0  0  0  0
   -1.4742    5.8038   14.6111 H   0  0  0  0  0  0
   -3.5751    3.6379   13.8415 H   0  0  0  0  0  0
   -3.0395    3.8967   15.5364 H   0  0  0  0  0  0
   -6.4176    4.2273   14.4183 H   0  0  0  0  0  0
   -1.0503   10.9181   14.6884 H   0  0  0  0  0  0
   -5.3910   -0.5898   15.0499 H   0  0  0  0  0  0
   -3.6343    1.8258   16.2910 H   0  0  0  0  0  0
  1 13  1  0  0  0
  1 14  1  0  0  0
  2 15  1  0  0  0
  2 17  1  0  0  0
  3  4  2  0  0  0
  3  5  2  0  0  0
  3  6  1  0  0  0
  3 10  1  0  0  0
  6 21  1  0  0  0
  7 18  2  0  0  0
  7 22  1  0  0  0
  7 23  1  0  0  0
  8 18  1  0  0  0
  8 24  1  0  0  0
  8 25  1  0  0  0
  9 19  1  0  0  0
  9 26  1  0  0  0
  9 34  1  0  0  0
 10 19  2  0  0  0
 11 17  1  0  0  0
 11 18  1  0  0  0
 11 35  1  0  0  0
 12 17  2  0  0  0
 12 20  1  0  0  0
 13 16  1  0  0  0
 13 27  1  0  0  0
 13 28  1  0  0  0
 14 20  1  0  0  0
 14 29  1  0  0  0
 14 30  1  0  0  0
 15 20  2  0  0  0
 15 31  1  0  0  0
 16 19  1  0  0  0
 16 32  1  0  0  0
 16 33  1  0  0  0
  6 36  1  0  0  0
 10 37  1  0  0  0
M  END
$$$$