5hls_ligand
Version: PDBbind v2024

 42 45  0  0  1  0            999 V2000
    7.5230   -4.9520   -7.3080 Cl  0  0  0  0  0  0
   12.9140   -9.7630   -3.3360 O   0  0  0  0  0  0
   13.8290   -5.8090   -0.5840 O   0  0  0  0  0  0
   14.9830   -9.1000   -3.9920 N   0  0  0  0  0  0
   13.5790   -4.7020    0.2170 N   0  0  0  0  0  0
   11.8910   -7.1650   -2.8100 N   0  0  0  0  0  0
   11.7170   -3.7000    1.4180 C   0  0  0  0  0  0
    7.7350   -7.4700   -0.4160 C   0  0  0  0  0  0
    8.1700   -6.9610    0.7930 C   0  0  0  0  0  0
    9.6050   -6.3010   -6.1880 C   0  0  0  0  0  0
    8.0440   -5.2180   -4.7120 C   0  0  0  0  0  0
    8.5680   -7.4230   -1.5250 C   0  0  0  0  0  0
    9.4290   -6.4100    0.9090 C   0  0  0  0  0  0
   10.3220   -6.7540   -5.0890 C   0  0  0  0  0  0
    8.7640   -5.6530   -3.6200 C   0  0  0  0  0  0
   14.0390   -8.0520   -2.0740 C   0  0  0  0  0  0
   13.8900   -9.0470   -3.1850 C   0  0  0  0  0  0
    8.4650   -5.5350   -5.9820 C   0  0  0  0  0  0
   12.6650   -6.4690   -0.7650 C   0  0  0  0  0  0
   12.2810   -4.7620    0.5620 C   0  0  0  0  0  0
   12.6420   -7.6320   -1.6510 C   0  0  1  0  0  0
   10.6430   -6.8570   -2.6350 C   0  0  0  0  0  0
    9.8900   -6.4170   -3.8220 C   0  0  0  0  0  0
    9.8440   -6.9140   -1.3910 C   0  0  0  0  0  0
   10.2800   -6.3660   -0.1930 C   0  0  0  0  0  0
   11.6480   -5.8700   -0.0590 C   0  0  0  0  0  0
   15.0021   -9.7914   -4.8473 H   0  0  0  0  0  0
   15.8481   -8.4515   -3.7895 H   0  0  0  0  0  0
   12.5168   -3.0065    1.7168 H   0  0  0  0  0  0
   11.2691   -4.1516    2.3154 H   0  0  0  0  0  0
   10.9448   -3.1505    0.8597 H   0  0  0  0  0  0
    6.8221   -7.8712   -0.4915 H   0  0  0  0  0  0
    7.5670   -6.9925    1.5901 H   0  0  0  0  0  0
    9.9053   -6.5233   -7.1156 H   0  0  0  0  0  0
    7.2163   -4.6724   -4.5807 H   0  0  0  0  0  0
    8.2471   -7.7545   -2.4122 H   0  0  0  0  0  0
    9.7321   -6.0407    1.7875 H   0  0  0  0  0  0
   11.1395   -7.3163   -5.2134 H   0  0  0  0  0  0
    8.4717   -5.4164   -2.6934 H   0  0  0  0  0  0
   14.5724   -8.5188   -1.2328 H   0  0  0  0  0  0
   14.6102   -7.1835   -2.4337 H   0  0  0  0  0  0
   12.1666   -8.4919   -1.1564 H   0  0  0  0  0  0
  1 18  1  0  0  0
  2 17  2  0  0  0
  3  5  1  0  0  0
  3 19  1  0  0  0
  4 17  1  0  0  0
  4 27  1  0  0  0
  4 28  1  0  0  0
  5 20  2  0  0  0
  6 21  1  0  0  0
  6 22  2  0  0  0
  7 20  1  0  0  0
  7 29  1  0  0  0
  7 30  1  0  0  0
  7 31  1  0  0  0
  8  9  2  0  0  0
  8 12  1  0  0  0
  8 32  1  0  0  0
  9 13  1  0  0  0
  9 33  1  0  0  0
 10 14  1  0  0  0
 10 18  2  0  0  0
 10 34  1  0  0  0
 11 15  2  0  0  0
 11 18  1  0  0  0
 11 35  1  0  0  0
 12 24  2  0  0  0
 12 36  1  0  0  0
 13 25  2  0  0  0
 13 37  1  0  0  0
 14 23  2  0  0  0
 14 38  1  0  0  0
 15 23  1  0  0  0
 15 39  1  0  0  0
 16 17  1  0  0  0
 16 21  1  0  0  0
 16 40  1  0  0  0
 16 41  1  0  0  0
 19 21  1  0  0  0
 19 26  2  0  0  0
 20 26  1  0  0  0
 21 42  1  0  0  0
 22 23  1  0  0  0
 22 24  1  0  0  0
 24 25  1  0  0  0
 25 26  1  0  0  0
M  END
$$$$