3nzc_ligand
Version: PDBbind v2024

 56 59  0  0  1  0            999 V2000
   17.1070    1.6740   12.0150 O   0  0  0  0  0  0
   16.1730    3.4440    6.9720 O   0  0  0  0  0  0
    9.9350   -3.8000   11.8910 N   0  0  0  0  0  0
   10.6440    0.0190   14.2690 N   0  0  0  0  0  0
   13.1730   -0.9940   10.4080 N   0  0  0  0  0  0
   10.3390   -1.8500   13.0660 N   0  0  0  0  0  0
   11.5410   -2.3620   11.1990 N   0  0  0  0  0  0
   18.4830    1.4460   12.0370 C   0  0  0  0  0  0
   12.6480    1.8960   13.4090 C   0  0  0  0  0  0
   14.9620    4.0470    6.6390 C   0  0  0  0  0  0
   13.8960    0.1100   10.4360 C   0  0  0  0  0  0
   15.9380    1.7570    2.1840 C   0  0  0  0  0  0
   16.8320    1.7960    3.2410 C   0  0  0  0  0  0
   14.8670    2.6410    2.1070 C   0  0  0  0  0  0
   15.3250    4.6790    5.2900 C   0  0  0  0  0  0
   17.6430    2.6430    8.5760 C   0  0  0  0  0  0
   17.9140    2.1950    9.8500 C   0  0  0  0  0  0
   16.6220    2.7480    4.2300 C   0  0  0  0  0  0
   14.6720    3.5790    3.0970 C   0  0  0  0  0  0
   15.3340    2.9190    9.1340 C   0  0  0  0  0  0
   14.5290    2.3370   11.4900 C   0  0  0  0  0  0
   10.6040   -2.6740   12.0590 C   0  0  0  0  0  0
   10.9840   -0.7140   13.2480 C   0  0  0  0  0  0
   16.3650    3.0170    8.2200 C   0  0  0  0  0  0
   16.8910    2.0980   10.7610 C   0  0  0  0  0  0
   12.2380   -1.2480   11.3160 C   0  0  0  0  0  0
   12.7560    0.8100   12.3840 C   0  0  0  0  0  0
   15.5480    3.6360    4.1670 C   0  0  0  0  0  0
   13.7120    1.0570   11.4310 C   0  0  0  0  0  0
   15.6110    2.4430   10.4230 C   0  0  0  0  0  0
   11.9870   -0.3660   12.3500 C   0  0  0  0  0  0
    9.1439   -4.0810   12.6018 H   0  0  0  0  0  0
   10.1688   -4.4570   11.0403 H   0  0  0  0  0  0
    9.8406   -0.3145   14.9423 H   0  0  0  0  0  0
   11.1602    0.9717   14.4583 H   0  0  0  0  0  0
   18.7796    1.0888   13.0342 H   0  0  0  0  0  0
   19.0135    2.3826   11.8103 H   0  0  0  0  0  0
   18.7409    0.6869   11.2839 H   0  0  0  0  0  0
   13.3744    2.6897   13.1801 H   0  0  0  0  0  0
   12.8595    1.4817   14.4058 H   0  0  0  0  0  0
   11.6308    2.3144   13.3941 H   0  0  0  0  0  0
   14.1767    3.2797    6.5714 H   0  0  0  0  0  0
   14.6924    4.7804    7.4133 H   0  0  0  0  0  0
   14.5863    0.2653    9.7293 H   0  0  0  0  0  0
   16.0653    1.0785    1.4605 H   0  0  0  0  0  0
   17.6024    1.1604    3.2904 H   0  0  0  0  0  0
   14.2373    2.5956    1.3315 H   0  0  0  0  0  0
   14.5120    5.3459    4.9669 H   0  0  0  0  0  0
   16.2544    5.2580    5.3946 H   0  0  0  0  0  0
   18.3805    2.6974    7.9029 H   0  0  0  0  0  0
   18.8464    1.9429   10.1090 H   0  0  0  0  0  0
   17.2539    2.7980    5.0035 H   0  0  0  0  0  0
   13.9021    4.2149    3.0428 H   0  0  0  0  0  0
   14.4038    3.1837    8.8799 H   0  0  0  0  0  0
   13.8636    3.2031   11.3590 H   0  0  0  0  0  0
   15.0327    2.4059   12.4655 H   0  0  0  0  0  0
  1  8  1  0  0  0
  1 25  1  0  0  0
  2 10  1  0  0  0
  2 24  1  0  0  0
  3 22  1  0  0  0
  3 32  1  0  0  0
  3 33  1  0  0  0
  4 23  1  0  0  0
  4 34  1  0  0  0
  4 35  1  0  0  0
  5 11  2  0  0  0
  5 26  1  0  0  0
  6 22  2  0  0  0
  6 23  1  0  0  0
  7 22  1  0  0  0
  7 26  2  0  0  0
  8 36  1  0  0  0
  8 37  1  0  0  0
  8 38  1  0  0  0
  9 27  1  0  0  0
  9 39  1  0  0  0
  9 40  1  0  0  0
  9 41  1  0  0  0
 10 15  1  0  0  0
 10 42  1  0  0  0
 10 43  1  0  0  0
 11 29  1  0  0  0
 11 44  1  0  0  0
 12 13  2  0  0  0
 12 14  1  0  0  0
 12 45  1  0  0  0
 13 18  1  0  0  0
 13 46  1  0  0  0
 14 19  2  0  0  0
 14 47  1  0  0  0
 15 28  1  0  0  0
 15 48  1  0  0  0
 15 49  1  0  0  0
 16 17  2  0  0  0
 16 24  1  0  0  0
 16 50  1  0  0  0
 17 25  1  0  0  0
 17 51  1  0  0  0
 18 28  2  0  0  0
 18 52  1  0  0  0
 19 28  1  0  0  0
 19 53  1  0  0  0
 20 24  2  0  0  0
 20 30  1  0  0  0
 20 54  1  0  0  0
 21 29  1  0  0  0
 21 30  1  0  0  0
 21 55  1  0  0  0
 21 56  1  0  0  0
 23 31  2  0  0  0
 25 30  2  0  0  0
 26 31  1  0  0  0
 27 29  2  0  0  0
 27 31  1  0  0  0
M  END
$$$$