#    Name:    3nzc_ligand
#    Version:    PDBbind v2024

@<TRIPOS>MOLECULE
3nzc_ligand
   56    59     1     0     0
SMALL
USER_CHARGES

@<TRIPOS>ATOM
      1 OAT        17.1070    1.6740   12.0150 O.3       1 D2O         0.0000
      2 OAU        16.1730    3.4440    6.9720 O.3       1 D2O         0.0000
      3 NAC         9.9350   -3.8000   11.8910 N.pl3     1 D2O         0.0000
      4 NAD        10.6440    0.0190   14.2690 N.pl3     1 D2O         0.0000
      5 NAQ        13.1730   -0.9940   10.4080 N.ar      1 D2O         0.0000
      6 N1         10.3390   -1.8500   13.0660 N.ar      1 D2O         0.0000
      7 N3         11.5410   -2.3620   11.1990 N.ar      1 D2O         0.0000
      8 CAA        18.4830    1.4460   12.0370 C.3       1 D2O         0.0000
      9 CAB        12.6480    1.8960   13.4090 C.3       1 D2O         0.0000
     10 CAN        14.9620    4.0470    6.6390 C.3       1 D2O         0.0000
     11 CAL        13.8960    0.1100   10.4360 C.ar      1 D2O         0.0000
     12 CAE        15.9380    1.7570    2.1840 C.ar      1 D2O         0.0000
     13 CAF        16.8320    1.7960    3.2410 C.ar      1 D2O         0.0000
     14 CAG        14.8670    2.6410    2.1070 C.ar      1 D2O         0.0000
     15 CAO        15.3250    4.6790    5.2900 C.3       1 D2O         0.0000
     16 CAJ        17.6430    2.6430    8.5760 C.ar      1 D2O         0.0000
     17 CAK        17.9140    2.1950    9.8500 C.ar      1 D2O         0.0000
     18 CAH        16.6220    2.7480    4.2300 C.ar      1 D2O         0.0000
     19 CAI        14.6720    3.5790    3.0970 C.ar      1 D2O         0.0000
     20 CAM        15.3340    2.9190    9.1340 C.ar      1 D2O         0.0000
     21 CAP        14.5290    2.3370   11.4900 C.3       1 D2O         0.0000
     22 C2         10.6040   -2.6740   12.0590 C.ar      1 D2O         0.0000
     23 C6         10.9840   -0.7140   13.2480 C.ar      1 D2O         0.0000
     24 CAW        16.3650    3.0170    8.2200 C.ar      1 D2O         0.0000
     25 CBC        16.8910    2.0980   10.7610 C.ar      1 D2O         0.0000
     26 C4         12.2380   -1.2480   11.3160 C.ar      1 D2O         0.0000
     27 CBB        12.7560    0.8100   12.3840 C.ar      1 D2O         0.0000
     28 CAV        15.5480    3.6360    4.1670 C.ar      1 D2O         0.0000
     29 CAY        13.7120    1.0570   11.4310 C.ar      1 D2O         0.0000
     30 CAZ        15.6110    2.4430   10.4230 C.ar      1 D2O         0.0000
     31 C5         11.9870   -0.3660   12.3500 C.ar      1 D2O         0.0000
     32 H           9.1439   -4.0810   12.6018 H         1 D2O         0.0000
     33 H          10.1688   -4.4570   11.0403 H         1 D2O         0.0000
     34 H           9.8406   -0.3145   14.9423 H         1 D2O         0.0000
     35 H          11.1602    0.9717   14.4583 H         1 D2O         0.0000
     36 H          18.7796    1.0888   13.0342 H         1 D2O         0.0000
     37 H          19.0135    2.3826   11.8103 H         1 D2O         0.0000
     38 H          18.7409    0.6869   11.2839 H         1 D2O         0.0000
     39 H          13.3744    2.6897   13.1801 H         1 D2O         0.0000
     40 H          12.8595    1.4817   14.4058 H         1 D2O         0.0000
     41 H          11.6308    2.3144   13.3941 H         1 D2O         0.0000
     42 H          14.1767    3.2797    6.5714 H         1 D2O         0.0000
     43 H          14.6924    4.7804    7.4133 H         1 D2O         0.0000
     44 H          14.6484    0.2792    9.6657 H         1 D2O         0.0000
     45 H          16.0767    1.0175    1.3953 H         1 D2O         0.0000
     46 H          17.6717    1.1032    3.2948 H         1 D2O         0.0000
     47 H          14.1806    2.5916    1.2617 H         1 D2O         0.0000
     48 H          14.5120    5.3459    4.9669 H         1 D2O         0.0000
     49 H          16.2544    5.2580    5.3946 H         1 D2O         0.0000
     50 H          18.4469    2.7023    7.8423 H         1 D2O         0.0000
     51 H          18.9303    1.9202   10.1323 H         1 D2O         0.0000
     52 H          17.3107    2.8025    5.0731 H         1 D2O         0.0000
     53 H          13.8328    4.2721    3.0379 H         1 D2O         0.0000
     54 H          14.3200    3.2075    8.8570 H         1 D2O         0.0000
     55 H          13.8636    3.2031   11.3590 H         1 D2O         0.0000
     56 H          15.0327    2.4059   12.4655 H         1 D2O         0.0000
@<TRIPOS>BOND
     1    1    8 1
     2    1   25 1
     3    2   10 1
     4    2   24 1
     5    3   22 1
     6    3   32 1
     7    3   33 1
     8    4   23 1
     9    4   34 1
    10    4   35 1
    11    5   11 ar
    12    5   26 ar
    13    6   22 ar
    14    6   23 ar
    15    7   22 ar
    16    7   26 ar
    17    8   36 1
    18    8   37 1
    19    8   38 1
    20    9   27 1
    21    9   39 1
    22    9   40 1
    23    9   41 1
    24   10   15 1
    25   10   42 1
    26   10   43 1
    27   11   29 ar
    28   11   44 1
    29   12   13 ar
    30   12   14 ar
    31   12   45 1
    32   13   18 ar
    33   13   46 1
    34   14   19 ar
    35   14   47 1
    36   15   28 1
    37   15   48 1
    38   15   49 1
    39   16   17 ar
    40   16   24 ar
    41   16   50 1
    42   17   25 ar
    43   17   51 1
    44   18   28 ar
    45   18   52 1
    46   19   28 ar
    47   19   53 1
    48   20   24 ar
    49   20   30 ar
    50   20   54 1
    51   21   29 1
    52   21   30 1
    53   21   55 1
    54   21   56 1
    55   23   31 ar
    56   25   30 ar
    57   26   31 ar
    58   27   29 ar
    59   27   31 ar

