1t48_ligand
Version: PDBbind v2024

 45 47  0  0  1  0            999 V2000
   48.6060   31.1550   25.9510 Br  0  0  0  0  0  0
   53.6820   29.6420   27.9680 Br  0  0  0  0  0  0
   58.8020   32.0390   19.0210 S   0  0  0  0  0  0
   59.1930   30.8750   18.2780 O   0  0  0  0  0  0
   58.4490   33.1340   18.0870 O   0  0  0  0  0  0
   50.7290   30.2220   27.8890 O   0  0  0  0  0  0
   52.5540   32.0930   22.1590 O   0  0  0  0  0  0
   55.9600   29.1660   22.2390 O   0  0  0  0  0  0
   60.1210   32.5230   20.0110 N   0  0  0  0  0  0
   59.8570   33.2870   21.2170 C   0  0  0  0  0  0
   61.4860   32.1720   19.6500 C   0  0  0  0  0  0
   55.1230   27.8280   24.6190 C   0  0  0  0  0  0
   54.0160   28.4220   23.7550 C   0  0  0  0  0  0
   56.3890   32.6430   20.1230 C   0  0  0  0  0  0
   55.2470   32.4340   20.8940 C   0  0  0  0  0  0
   57.3860   30.4870   20.7030 C   0  0  0  0  0  0
   51.0450   31.1900   24.4020 C   0  0  0  0  0  0
   53.2220   30.5310   25.2820 C   0  0  0  0  0  0
   50.4400   30.9340   25.6340 C   0  0  0  0  0  0
   52.6640   30.2570   26.5230 C   0  0  0  0  0  0
   57.4290   31.7010   20.0190 C   0  0  0  0  0  0
   51.2350   30.4560   26.7650 C   0  0  0  0  0  0
   53.0650   31.2630   22.9060 C   0  0  0  0  0  0
   54.6610   29.4340   22.8460 C   0  0  0  0  0  0
   56.2690   30.2560   21.4750 C   0  0  0  0  0  0
   52.4220   30.9820   24.2320 C   0  0  0  0  0  0
   55.1950   31.2310   21.5740 C   0  0  0  0  0  0
   54.1870   30.6490   22.5100 C   0  0  0  0  0  0
   58.7740   33.4514   21.3172 H   0  0  0  0  0  0
   60.3711   34.2576   21.1561 H   0  0  0  0  0  0
   60.2259   32.7309   22.0914 H   0  0  0  0  0  0
   61.4810   31.5977   18.7118 H   0  0  0  0  0  0
   61.9319   31.5631   20.4503 H   0  0  0  0  0  0
   62.0771   33.0898   19.5149 H   0  0  0  0  0  0
   54.6938   27.0798   25.3016 H   0  0  0  0  0  0
   55.6001   28.6277   25.2046 H   0  0  0  0  0  0
   55.8738   27.3480   23.9741 H   0  0  0  0  0  0
   53.5389   27.6223   23.1694 H   0  0  0  0  0  0
   53.2652   28.9020   24.3999 H   0  0  0  0  0  0
   56.4733   33.5031   19.6199 H   0  0  0  0  0  0
   54.5126   33.1103   20.9518 H   0  0  0  0  0  0
   58.1272   29.8190   20.6366 H   0  0  0  0  0  0
   50.4940   31.5233   23.6369 H   0  0  0  0  0  0
   54.2037   30.4043   25.1397 H   0  0  0  0  0  0
   50.0630   29.5502   27.8016 H   0  0  0  0  0  0
  1 19  1  0  0  0
  2 20  1  0  0  0
  3  4  2  0  0  0
  3  5  2  0  0  0
  3  9  1  0  0  0
  3 21  1  0  0  0
  6 22  1  0  0  0
  7 23  2  0  0  0
  8 24  1  0  0  0
  8 25  1  0  0  0
  9 10  1  0  0  0
  9 11  1  0  0  0
 10 29  1  0  0  0
 10 30  1  0  0  0
 10 31  1  0  0  0
 11 32  1  0  0  0
 11 33  1  0  0  0
 11 34  1  0  0  0
 12 13  1  0  0  0
 12 35  1  0  0  0
 12 36  1  0  0  0
 12 37  1  0  0  0
 13 24  1  0  0  0
 13 38  1  0  0  0
 13 39  1  0  0  0
 14 15  1  0  0  0
 14 21  2  0  0  0
 14 40  1  0  0  0
 15 27  2  0  0  0
 15 41  1  0  0  0
 16 21  1  0  0  0
 16 25  2  0  0  0
 16 42  1  0  0  0
 17 19  1  0  0  0
 17 26  2  0  0  0
 17 43  1  0  0  0
 18 20  2  0  0  0
 18 26  1  0  0  0
 18 44  1  0  0  0
 19 22  2  0  0  0
 20 22  1  0  0  0
 23 26  1  0  0  0
 23 28  1  0  0  0
 24 28  2  0  0  0
 25 27  1  0  0  0
 27 28  1  0  0  0
  6 45  1  0  0  0
M  END
$$$$