#    Name:    6g3q_ligand
#    Version:    PDBbind v2024

@<TRIPOS>MOLECULE
6g3q_ligand
   37    37     1     0     0
SMALL
USER_CHARGES

@<TRIPOS>ATOM
      1 S          -4.8650    5.8430   13.1070 S.3       1 FO9         0.0000
      2 S1         -0.9670    8.1450   15.0350 S.3       1 FO9         0.0000
      3 S2         -5.6610    0.8430   16.6660 S.o2      1 FO9         0.0000
      4 O1         -5.3990    0.8300   18.0800 O.2       1 FO9         0.0000
      5 O          -6.9720    1.2630   16.2590 O.2       1 FO9         0.0000
      6 N6         -5.2120   -0.5810   16.0540 N.am      1 FO9         0.0000
      7 N2         -2.7620   11.0070   11.9180 N.pl3     1 FO9         0.0000
      8 N3         -1.8710   12.6270   13.2580 N.pl3     1 FO9         0.0000
      9 N          -6.2000    3.3220   15.0040 N.pl3     1 FO9         0.0000
     10 N5         -4.6220    1.9540   16.0710 N.am      1 FO9         0.0000
     11 N1         -1.6120   10.4390   13.8730 N.pl3     1 FO9         0.0000
     12 N4         -2.4680    8.4180   12.9520 N.2       1 FO9         0.0000
     13 C2         -4.4030    5.3730   14.7900 C.3       1 FO9         0.0000
     14 C3         -3.2170    6.1270   12.4160 C.3       1 FO9         0.0000
     15 C5         -1.6320    6.7390   14.2940 C.2       1 FO9         0.0000
     16 C1         -3.8940    3.9530   14.8460 C.3       1 FO9         0.0000
     17 C6         -1.7500    9.0910   13.8460 C.2       1 FO9         0.0000
     18 C7         -2.0900   11.3600   12.9920 C.cat     1 FO9         1.0000
     19 C          -4.9430    3.0200   15.3200 C.cat     1 FO9         1.0000
     20 C4         -2.3940    7.0660   13.2290 C.2       1 FO9         0.0000
     21 H          -5.3910   -0.5898   15.0499 H         1 FO9         0.0000
     22 H          -4.2166   -0.7243   16.2244 H         1 FO9         0.0000
     23 H          -3.1351   11.7757   11.2253 H         1 FO9         0.0000
     24 H          -2.9509    9.9430   11.7124 H         1 FO9         0.0000
     25 H          -2.2398   13.4046   12.5729 H         1 FO9         0.0000
     26 H          -1.3188   12.9109   14.1660 H         1 FO9         0.0000
     27 H          -7.0214    2.6663   15.3285 H         1 FO9         0.0000
     28 H          -6.4176    4.2273   14.4183 H         1 FO9         0.0000
     29 H          -1.0503   10.9181   14.6884 H         1 FO9         0.0000
     30 H          -3.6093    6.0426   15.1528 H         1 FO9         0.0000
     31 H          -5.2809    5.4550   15.4477 H         1 FO9         0.0000
     32 H          -2.6736    5.1723   12.3595 H         1 FO9         0.0000
     33 H          -3.3112    6.5555   11.4073 H         1 FO9         0.0000
     34 H          -1.4600    5.7197   14.6397 H         1 FO9         0.0000
     35 H          -3.5751    3.6379   13.8415 H         1 FO9         0.0000
     36 H          -3.0395    3.8967   15.5364 H         1 FO9         0.0000
     37 H          -3.6343    1.8258   16.2910 H         1 FO9         0.0000
@<TRIPOS>BOND
     1    1   13 1
     2    1   14 1
     3    2   15 1
     4    2   17 1
     5    3    4 ar
     6    3    5 ar
     7    3    6 1
     8    3   10 am
     9    6   21 1
    10    6   22 1
    11    7   18 ar
    12    7   23 1
    13    7   24 1
    14    8   18 ar
    15    8   25 1
    16    8   26 1
    17    9   19 ar
    18    9   27 1
    19    9   28 1
    20   10   19 ar
    21   11   17 1
    22   11   18 ar
    23   11   29 1
    24   12   17 2
    25   12   20 1
    26   13   16 1
    27   13   30 1
    28   13   31 1
    29   14   20 1
    30   14   32 1
    31   14   33 1
    32   15   20 2
    33   15   34 1
    34   16   19 1
    35   16   35 1
    36   16   36 1
    37   10   37 1

