#    Name:    5hls_ligand
#    Version:    PDBbind v2024

@<TRIPOS>MOLECULE
5hls_ligand
   42    45     1     0     0
SMALL
USER_CHARGES

@<TRIPOS>ATOM
      1 CL25        7.5230   -4.9520   -7.3080 Cl        1 62G         0.0000
      2 O20        12.9140   -9.7630   -3.3360 O.2       1 62G         0.0000
      3 O4         13.8290   -5.8090   -0.5840 O.3       1 62G         0.0000
      4 N19        14.9830   -9.1000   -3.9920 N.am      1 62G         0.0000
      5 N3         13.5790   -4.7020    0.2170 N.2       1 62G         0.0000
      6 N14        11.8910   -7.1650   -2.8100 N.2       1 62G         0.0000
      7 C1         11.7170   -3.7000    1.4180 C.3       1 62G         0.0000
      8 C10         7.7350   -7.4700   -0.4160 C.ar      1 62G         0.0000
      9 C9          8.1700   -6.9610    0.7930 C.ar      1 62G         0.0000
     10 C26         9.6050   -6.3010   -6.1880 C.ar      1 62G         0.0000
     11 C23         8.0440   -5.2180   -4.7120 C.ar      1 62G         0.0000
     12 C11         8.5680   -7.4230   -1.5250 C.ar      1 62G         0.0000
     13 C8          9.4290   -6.4100    0.9090 C.ar      1 62G         0.0000
     14 C27        10.3220   -6.7540   -5.0890 C.ar      1 62G         0.0000
     15 C22         8.7640   -5.6530   -3.6200 C.ar      1 62G         0.0000
     16 C17        14.0390   -8.0520   -2.0740 C.3       1 62G         0.0000
     17 C18        13.8900   -9.0470   -3.1850 C.2       1 62G         0.0000
     18 C24         8.4650   -5.5350   -5.9820 C.ar      1 62G         0.0000
     19 C5         12.6650   -6.4690   -0.7650 C.2       1 62G         0.0000
     20 C2         12.2810   -4.7620    0.5620 C.2       1 62G         0.0000
     21 C15        12.6420   -7.6320   -1.6510 C.3       1 62G         0.0000
     22 C13        10.6430   -6.8570   -2.6350 C.2       1 62G         0.0000
     23 C21         9.8900   -6.4170   -3.8220 C.ar      1 62G         0.0000
     24 C12         9.8440   -6.9140   -1.3910 C.ar      1 62G         0.0000
     25 C7         10.2800   -6.3660   -0.1930 C.ar      1 62G         0.0000
     26 C6         11.6480   -5.8700   -0.0590 C.2       1 62G         0.0000
     27 H          15.0021   -9.7914   -4.8473 H         1 62G         0.0000
     28 H          15.8481   -8.4515   -3.7895 H         1 62G         0.0000
     29 H          12.5168   -3.0065    1.7168 H         1 62G         0.0000
     30 H          11.2691   -4.1516    2.3154 H         1 62G         0.0000
     31 H          10.9448   -3.1505    0.8597 H         1 62G         0.0000
     32 H           6.7400   -7.9073   -0.4983 H         1 62G         0.0000
     33 H           7.5128   -6.9953    1.6619 H         1 62G         0.0000
     34 H           9.9324   -6.5433   -7.1991 H         1 62G         0.0000
     35 H           7.1418   -4.6233   -4.5689 H         1 62G         0.0000
     36 H           8.2182   -7.7844   -2.4920 H         1 62G         0.0000
     37 H           9.7594   -6.0074    1.8665 H         1 62G         0.0000
     38 H          11.2131   -7.3669   -5.2246 H         1 62G         0.0000
     39 H           8.4454   -5.3951   -2.6100 H         1 62G         0.0000
     40 H          14.5724   -8.5188   -1.2328 H         1 62G         0.0000
     41 H          14.6102   -7.1835   -2.4337 H         1 62G         0.0000
     42 H          12.1666   -8.4919   -1.1564 H         1 62G         0.0000
@<TRIPOS>BOND
     1    1   18 1
     2    2   17 2
     3    3    5 1
     4    3   19 1
     5    4   17 am
     6    4   27 1
     7    4   28 1
     8    5   20 2
     9    6   21 1
    10    6   22 2
    11    7   20 1
    12    7   29 1
    13    7   30 1
    14    7   31 1
    15    8    9 ar
    16    8   12 ar
    17    8   32 1
    18    9   13 ar
    19    9   33 1
    20   10   14 ar
    21   10   18 ar
    22   10   34 1
    23   11   15 ar
    24   11   18 ar
    25   11   35 1
    26   12   24 ar
    27   12   36 1
    28   13   25 ar
    29   13   37 1
    30   14   23 ar
    31   14   38 1
    32   15   23 ar
    33   15   39 1
    34   16   17 1
    35   16   21 1
    36   16   40 1
    37   16   41 1
    38   19   21 1
    39   19   26 2
    40   20   26 1
    41   21   42 1
    42   22   23 1
    43   22   24 1
    44   24   25 ar
    45   25   26 1

