2qk8_ligand
Version: PDBbind v2024

 53 55  0  0  1  0            999 V2000
    4.0660    0.2550   10.3760 O   0  0  0  0  0  0
    3.1430    0.3670   12.3370 O   0  5  0  0  0  0
    0.7450   -4.5220   10.0970 O   0  0  0  0  0  0
    1.8640   -3.5820    8.4630 O   0  5  0  0  0  0
    0.2670    0.3340   10.6240 O   0  0  0  0  0  0
   -3.3580   -8.2450   17.9380 N   0  0  0  0  0  0
   -6.8490   -7.1010   15.1010 N   0  0  0  0  0  0
   -3.6560   -3.7940   16.6750 N   0  0  0  0  0  0
   -5.0490   -7.6650   16.4730 N   0  0  0  0  0  0
   -3.4950   -6.0660   17.3120 N   0  0  0  0  0  0
    0.4100   -2.0050   11.2380 N   0  0  0  0  0  0
   -5.8280   -4.3980   15.0450 N   0  0  0  0  0  0
   -5.1340   -0.7800   14.2830 N   0  0  0  0  0  0
   -5.7960    0.5140   14.4610 C   0  0  0  0  0  0
   -4.2700   -2.7840   15.9430 C   0  0  0  0  0  0
   -6.0040   -1.9700   14.3580 C   0  0  0  0  0  0
    3.9900   -1.7870   11.6650 C   0  0  0  0  0  0
    2.6880   -2.6170   11.6120 C   0  0  0  0  0  0
   -3.2910    0.4300   13.1380 C   0  0  0  0  0  0
   -3.2750   -1.9910   13.1500 C   0  0  0  0  0  0
   -2.1210    0.4330   12.3890 C   0  0  0  0  0  0
   -2.1010   -1.9440   12.3790 C   0  0  0  0  0  0
    3.7200   -0.3130   11.4530 C   0  0  0  0  0  0
    1.4110   -3.5310    9.6540 C   0  0  0  0  0  0
   -3.9620   -7.3240   17.2380 C   0  0  0  0  0  0
   -0.2260   -0.8310   11.2560 C   0  0  0  0  0  0
   -5.6860   -6.7350   15.6940 C   0  0  0  0  0  0
   -4.1270   -5.1020   16.5750 C   0  0  0  0  0  0
   -5.3590   -3.0800   15.1250 C   0  0  0  0  0  0
    1.6370   -2.3060   10.5340 C   0  0  1  0  0  0
   -3.8980   -0.7880   13.5240 C   0  0  0  0  0  0
   -5.2220   -5.4150   15.7580 C   0  0  0  0  0  0
   -1.5200   -0.7860   12.0370 C   0  0  0  0  0  0
   -3.7135   -9.2853   17.9013 H   0  0  0  0  0  0
   -2.4934   -7.9810   18.5647 H   0  0  0  0  0  0
   -7.1510   -8.1587   15.0885 H   0  0  0  0  0  0
   -7.4906   -6.3403   14.6323 H   0  0  0  0  0  0
   -0.0889   -2.7850   11.8318 H   0  0  0  0  0  0
   -6.7148    0.3778   15.0504 H   0  0  0  0  0  0
   -6.0506    0.9340   13.4768 H   0  0  0  0  0  0
   -5.1199    1.2021   14.9896 H   0  0  0  0  0  0
   -3.9304   -1.8454   16.0034 H   0  0  0  0  0  0
   -6.9460   -1.7044   14.8600 H   0  0  0  0  0  0
   -6.2194   -2.3314   13.3416 H   0  0  0  0  0  0
    4.4665   -1.9148   12.6482 H   0  0  0  0  0  0
    4.6765   -2.1310   10.8774 H   0  0  0  0  0  0
    2.9351   -3.6769   11.4523 H   0  0  0  0  0  0
    2.1438   -2.5064   12.5615 H   0  0  0  0  0  0
   -3.7085    1.2979   13.4071 H   0  0  0  0  0  0
   -3.6624   -2.8697   13.4291 H   0  0  0  0  0  0
   -1.7094    1.2981   12.1023 H   0  0  0  0  0  0
   -1.6861   -2.8019   12.0760 H   0  0  0  0  0  0
    1.9166   -1.4469    9.9065 H   0  0  0  0  0  0
  1 23  2  0  0  0
  2 23  1  0  0  0
  3 24  2  0  0  0
  4 24  1  0  0  0
  5 26  2  0  0  0
  6 25  1  0  0  0
  6 34  1  0  0  0
  6 35  1  0  0  0
  7 27  1  0  0  0
  7 36  1  0  0  0
  7 37  1  0  0  0
  8 15  2  0  0  0
  8 28  1  0  0  0
  9 25  2  0  0  0
  9 27  1  0  0  0
 10 25  1  0  0  0
 10 28  2  0  0  0
 11 26  1  0  0  0
 11 30  1  0  0  0
 11 38  1  0  0  0
 12 29  2  0  0  0
 12 32  1  0  0  0
 13 14  1  0  0  0
 13 16  1  0  0  0
 13 31  1  0  0  0
 14 39  1  0  0  0
 14 40  1  0  0  0
 14 41  1  0  0  0
 15 29  1  0  0  0
 15 42  1  0  0  0
 16 29  1  0  0  0
 16 43  1  0  0  0
 16 44  1  0  0  0
 17 18  1  0  0  0
 17 23  1  0  0  0
 17 45  1  0  0  0
 17 46  1  0  0  0
 18 30  1  0  0  0
 18 47  1  0  0  0
 18 48  1  0  0  0
 19 21  1  0  0  0
 19 31  2  0  0  0
 19 49  1  0  0  0
 20 22  2  0  0  0
 20 31  1  0  0  0
 20 50  1  0  0  0
 21 33  2  0  0  0
 21 51  1  0  0  0
 22 33  1  0  0  0
 22 52  1  0  0  0
 24 30  1  0  0  0
 26 33  1  0  0  0
 27 32  2  0  0  0
 28 32  1  0  0  0
 30 53  1  0  0  0
M  END
$$$$